// Synchronous generators 
1, 'GENCLS', 1, 23.64, 4.7
2, 'GENCLS', 1, 6.4, 2.5
3, 'GENCLS', 1, 3.01, 1.8